<?xml version="1.0" encoding="UTF-8"?>
<routes>
   <route id="0" town="Town01">
      <weathers>
         <weather route_percentage="0" cloudiness="0.0" precipitation="0.0" precipitation_deposits="0.0" wetness="0.0" wind_intensity="0.0" sun_azimuth_angle="90.0" sun_altitude_angle="90.0" fog_density="0.0"/>
         <weather route_percentage="100" cloudiness="0.0" precipitation="0.0" precipitation_deposits="0.0" wetness="0.0" wind_intensity="0.0" sun_azimuth_angle="90.0" sun_altitude_angle="90.0" fog_density="0.0"/>
      </weathers>
      <waypoints>
         <position x="338.7027893066406" y="226.75003051757812" z="0.0"/>
         <position x="321.98931884765625" y="194.67242431640625" z="0.0"/>
         <position x="283.6903991699219" y="194.78451538085938" z="0.0"/>
         <position x="108.0505142211914" y="195.29856872558594" z="0.0"/>
         <position x="88.40200805664062" y="210.57827758789062" z="0.0"/>
         <position x="88.41706848144531" y="309.6344299316406" z="0.0"/>
         <position x="75.58748626708984" y="326.3004455566406" z="0.0"/>
         <position x="14.334035873413086" y="326.2628173828125" z="0.0"/>
         <position x="1.8717632293701172" y="299.4347229003906" z="0.0"/>
         <position x="1.612621784210205" y="170.71238708496094" z="0.0"/>
         <position x="1.3654530048370361" y="47.93744659423828" z="0.0"/>
      </waypoints>
      <scenarios/>
   </route>
   <route id="1" town="Town01">
      <weathers>
         <weather route_percentage="0" cloudiness="0.0" precipitation="0.0" precipitation_deposits="0.0" wetness="0.0" wind_intensity="0.0" sun_azimuth_angle="90.0" sun_altitude_angle="90.0" fog_density="0.0"/>
         <weather route_percentage="100" cloudiness="0.0" precipitation="0.0" precipitation_deposits="0.0" wetness="0.0" wind_intensity="0.0" sun_azimuth_angle="90.0" sun_altitude_angle="90.0" fog_density="0.0"/>
      </weathers>
      <waypoints>
         <position x="121.72344970703125" y="59.17844009399414" z="0.0"/>
         <position x="249.13783264160156" y="59.3275032043457" z="0.0"/>
         <position x="315.4411315917969" y="59.40507507324219" z="0.0"/>
         <position x="334.6475524902344" y="75.26239013671875" z="0.0"/>
         <position x="334.6621398925781" y="115.21650695800781" z="0.0"/>
         <position x="312.11029052734375" y="129.5294189453125" z="0.0"/>
         <position x="254.0718994140625" y="129.33969116210938" z="0.0"/>
         <position x="130.1896514892578" y="128.9347381591797" z="0.0"/>
         <position x="104.88580322265625" y="128.85202026367188" z="0.0"/>
         <position x="92.3873062133789" y="113.84988403320312" z="0.0"/>
         <position x="92.3824462890625" y="81.85515594482422" z="0.0"/>
      </waypoints>
      <scenarios/>
   </route>
   <route id="2" town="Town01">
      <weathers>
         <weather route_percentage="0" cloudiness="0.0" precipitation="0.0" precipitation_deposits="0.0" wetness="0.0" wind_intensity="0.0" sun_azimuth_angle="90.0" sun_altitude_angle="90.0" fog_density="0.0"/>
         <weather route_percentage="100" cloudiness="0.0" precipitation="0.0" precipitation_deposits="0.0" wetness="0.0" wind_intensity="0.0" sun_azimuth_angle="90.0" sun_altitude_angle="90.0" fog_density="0.0"/>
      </weathers>
      <waypoints>
         <position x="53.05508041381836" y="-2.35788631439209" z="0.0"/>
         <position x="-2.673415422439575" y="28.63454818725586" z="0.0"/>
         <position x="-2.3427786827087402" y="192.8701171875" z="0.0"/>
         <position x="-2.1942241191864014" y="266.6610107421875" z="0.0"/>
         <position x="-2.1050660610198975" y="310.9482727050781" z="0.0"/>
         <position x="24.25780487060547" y="330.2689208984375" z="0.0"/>
         <position x="67.7093276977539" y="330.29559326171875" z="0.0"/>
         <position x="103.49156951904297" y="330.31756591796875" z="0.0"/>
         <position x="271.3299560546875" y="330.4205017089844" z="0.0"/>
         <position x="316.4518127441406" y="330.4482421875" z="0.0"/>
         <position x="376.9873352050781" y="330.485595703125" z="0.0"/>
         <position x="396.4393310546875" y="290.8396301269531" z="0.0"/>
         <position x="396.38623046875" y="219.68142700195312" z="0.0"/>
         <position x="396.3192443847656" y="129.7147979736328" z="0.0"/>
      </waypoints>
      <scenarios/>
   </route>
   <route id="3" town="Town01">
      <weathers>
         <weather route_percentage="0" cloudiness="0.0" precipitation="0.0" precipitation_deposits="0.0" wetness="0.0" wind_intensity="0.0" sun_azimuth_angle="90.0" sun_altitude_angle="90.0" fog_density="0.0"/>
         <weather route_percentage="100" cloudiness="0.0" precipitation="0.0" precipitation_deposits="0.0" wetness="0.0" wind_intensity="0.0" sun_azimuth_angle="90.0" sun_altitude_angle="90.0" fog_density="0.0"/>
      </weathers>
      <waypoints>
         <position x="315.2674560546875" y="1.7750924825668335" z="0.0"/>
         <position x="334.6253356933594" y="14.335249900817871" z="0.0"/>
         <position x="315.8530578613281" y="55.40555191040039" z="0.0"/>
         <position x="226.33297729492188" y="55.300819396972656" z="0.0"/>
         <position x="173.5809326171875" y="55.239105224609375" z="0.0"/>
         <position x="157.98867797851562" y="39.896236419677734" z="0.0"/>
         <position x="141.9262237548828" y="-2.3128161430358887" z="0.0"/>
         <position x="109.39694213867188" y="-2.329313039779663" z="0.0"/>
         <position x="88.37610626220703" y="40.17418670654297" z="0.0"/>
         <position x="88.38069152832031" y="70.33818054199219" z="0.0"/>
         <position x="88.38651275634766" y="108.64129638671875" z="0.0"/>
         <position x="88.391845703125" y="143.68722534179688" z="0.0"/>
         <position x="88.39682006835938" y="176.42515563964844" z="0.0"/>
         <position x="88.4019775390625" y="210.35337829589844" z="0.0"/>
         <position x="88.41710662841797" y="309.8704833984375" z="0.0"/>
         <position x="75.55514526367188" y="326.3004150390625" z="0.0"/>
         <position x="12.632027626037598" y="326.26177978515625" z="0.0"/>
         <position x="1.8649307489395142" y="296.0408020019531" z="0.0"/>
         <position x="1.4228647947311401" y="76.4553451538086" z="0.0"/>
         <position x="1.3183270692825317" y="24.528728485107422" z="0.0"/>
      </waypoints>
      <scenarios/>
   </route>
   <route id="4" town="Town01">
      <weathers>
         <weather route_percentage="0" cloudiness="0.0" precipitation="0.0" precipitation_deposits="0.0" wetness="0.0" wind_intensity="0.0" sun_azimuth_angle="90.0" sun_altitude_angle="90.0" fog_density="0.0"/>
         <weather route_percentage="100" cloudiness="0.0" precipitation="0.0" precipitation_deposits="0.0" wetness="0.0" wind_intensity="0.0" sun_azimuth_angle="90.0" sun_altitude_angle="90.0" fog_density="0.0"/>
      </weathers>
      <waypoints>
         <position x="56.90949630737305" y="1.644068956375122" z="0.0"/>
         <position x="108.8623046875" y="1.6704164743423462" z="0.0"/>
         <position x="134.96644592285156" y="1.6836549043655396" z="0.0"/>
         <position x="153.95574951171875" y="12.585290908813477" z="0.0"/>
         <position x="153.98809814453125" y="39.41703414916992" z="0.0"/>
         <position x="139.60507202148438" y="55.19935607910156" z="0.0"/>
         <position x="108.625244140625" y="55.16311264038086" z="0.0"/>
         <position x="88.3819351196289" y="78.5218505859375" z="0.0"/>
         <position x="88.38763427734375" y="116.0037612915039" z="0.0"/>
         <position x="88.3920669555664" y="145.12017822265625" z="0.0"/>
         <position x="88.39686584472656" y="176.69561767578125" z="0.0"/>
         <position x="182.24264526367188" y="199.08143615722656" z="0.0"/>
         <position x="310.5677185058594" y="198.7058563232422" z="0.0"/>
      </waypoints>
      <scenarios/>
   </route>
   <route id="5" town="Town01">
      <weathers>
         <weather route_percentage="0" cloudiness="0.0" precipitation="0.0" precipitation_deposits="0.0" wetness="0.0" wind_intensity="0.0" sun_azimuth_angle="90.0" sun_altitude_angle="90.0" fog_density="0.0"/>
         <weather route_percentage="100" cloudiness="0.0" precipitation="0.0" precipitation_deposits="0.0" wetness="0.0" wind_intensity="0.0" sun_azimuth_angle="90.0" sun_altitude_angle="90.0" fog_density="0.0"/>
      </weathers>
      <waypoints>
         <position x="334.7254638671875" y="288.90679931640625" z="0.0"/>
         <position x="334.7344970703125" y="313.657958984375" z="0.0"/>
         <position x="357.1101379394531" y="330.47332763671875" z="0.0"/>
         <position x="396.45916748046875" y="317.3710021972656" z="0.0"/>
         <position x="396.43365478515625" y="283.24346923828125" z="0.0"/>
         <position x="396.318115234375" y="128.203857421875" z="0.0"/>
         <position x="396.2600402832031" y="50.238136291503906" z="0.0"/>
         <position x="396.2330017089844" y="13.925765991210938" z="0.0"/>
         <position x="368.76617431640625" y="-2.1977765560150146" z="0.0"/>
         <position x="308.4601135253906" y="-2.228360176086426" z="0.0"/>
         <position x="207.614501953125" y="-2.279503107070923" z="0.0"/>
         <position x="173.9556427001953" y="-2.296572685241699" z="0.0"/>
         <position x="153.95753479003906" y="14.065252304077148" z="0.0"/>
         <position x="153.9872283935547" y="38.697792053222656" z="0.0"/>
         <position x="109.57969665527344" y="55.16423034667969" z="0.0"/>
         <position x="92.3765869140625" y="43.30881881713867" z="0.0"/>
         <position x="92.37274169921875" y="18.01288414001465" z="0.0"/>
         <position x="68.05789947509766" y="-2.3502776622772217" z="0.0"/>
         <position x="14.081366539001465" y="-2.3776514530181885" z="0.0"/>
         <position x="-2.6820547580718994" y="24.343191146850586" z="0.0"/>
         <position x="-2.4851901531219482" y="122.13080596923828" z="0.0"/>
         <position x="-2.1895012855529785" y="269.0069580078125" z="0.0"/>
      </waypoints>
      <scenarios/>
   </route>
   <route id="6" town="Town01">
      <weathers>
         <weather route_percentage="0" cloudiness="0.0" precipitation="0.0" precipitation_deposits="0.0" wetness="0.0" wind_intensity="0.0" sun_azimuth_angle="90.0" sun_altitude_angle="90.0" fog_density="0.0"/>
         <weather route_percentage="100" cloudiness="0.0" precipitation="0.0" precipitation_deposits="0.0" wetness="0.0" wind_intensity="0.0" sun_azimuth_angle="90.0" sun_altitude_angle="90.0" fog_density="0.0"/>
      </weathers>
      <waypoints>
         <position x="92.41790771484375" y="315.1663513183594" z="0.0"/>
         <position x="92.41033172607422" y="265.31756591796875" z="0.0"/>
         <position x="92.40457153320312" y="227.42677307128906" z="0.0"/>
         <position x="92.40277099609375" y="215.60093688964844" z="0.0"/>
         <position x="219.9288330078125" y="198.97113037109375" z="0.0"/>
         <position x="313.20977783203125" y="198.6981201171875" z="0.0"/>
         <position x="338.6866455078125" y="182.45599365234375" z="0.0"/>
         <position x="338.6753234863281" y="151.41770935058594" z="0.0"/>
         <position x="320.4845275878906" y="129.55679321289062" z="0.0"/>
         <position x="199.1981658935547" y="129.16030883789062" z="0.0"/>
         <position x="129.8414764404297" y="128.93359375" z="0.0"/>
         <position x="107.4002685546875" y="128.86024475097656" z="0.0"/>
         <position x="92.38561248779297" y="102.70710754394531" z="0.0"/>
         <position x="92.381103515625" y="73.05748748779297" z="0.0"/>
         <position x="114.37248992919922" y="59.16984176635742" z="0.0"/>
         <position x="135.82371520996094" y="59.19493865966797" z="0.0"/>
      </waypoints>
      <scenarios/>
   </route>
   <route id="7" town="Town01">
      <weathers>
         <weather route_percentage="0" cloudiness="0.0" precipitation="0.0" precipitation_deposits="0.0" wetness="0.0" wind_intensity="0.0" sun_azimuth_angle="90.0" sun_altitude_angle="90.0" fog_density="0.0"/>
         <weather route_percentage="100" cloudiness="0.0" precipitation="0.0" precipitation_deposits="0.0" wetness="0.0" wind_intensity="0.0" sun_azimuth_angle="90.0" sun_altitude_angle="90.0" fog_density="0.0"/>
      </weathers>
      <waypoints>
         <position x="157.9880828857422" y="39.39617156982422" z="0.0"/>
         <position x="157.96221923828125" y="17.952861785888672" z="0.0"/>
         <position x="253.0749053955078" y="1.7435522079467773" z="0.0"/>
         <position x="315.1820983886719" y="1.7750492095947266" z="0.0"/>
         <position x="348.85223388671875" y="1.7921247482299805" z="0.0"/>
         <position x="379.3345031738281" y="1.8075834512710571" z="0.0"/>
         <position x="392.24493408203125" y="29.937896728515625" z="0.0"/>
         <position x="392.2692565917969" y="62.618507385253906" z="0.0"/>
         <position x="392.34820556640625" y="168.6100311279297" z="0.0"/>
         <position x="392.4200439453125" y="265.0082702636719" z="0.0"/>
         <position x="392.4576721191406" y="315.3871765136719" z="0.0"/>
         <position x="361.8758850097656" y="326.4762878417969" z="0.0"/>
         <position x="299.8201599121094" y="326.4380187988281" z="0.0"/>
         <position x="269.32763671875" y="326.4192810058594" z="0.0"/>
      </waypoints>
      <scenarios/>
   </route>
   <route id="8" town="Town01">
      <weathers>
         <weather route_percentage="0" cloudiness="0.0" precipitation="0.0" precipitation_deposits="0.0" wetness="0.0" wind_intensity="0.0" sun_azimuth_angle="90.0" sun_altitude_angle="90.0" fog_density="0.0"/>
         <weather route_percentage="100" cloudiness="0.0" precipitation="0.0" precipitation_deposits="0.0" wetness="0.0" wind_intensity="0.0" sun_azimuth_angle="90.0" sun_altitude_angle="90.0" fog_density="0.0"/>
      </weathers>
      <waypoints>
         <position x="204.92605590820312" y="326.3797912597656" z="0.0"/>
         <position x="111.30892944335938" y="326.3223571777344" z="0.0"/>
         <position x="92.4170913696289" y="309.8084716796875" z="0.0"/>
         <position x="92.41275787353516" y="281.28570556640625" z="0.0"/>
         <position x="92.40253448486328" y="214.0068359375" z="0.0"/>
         <position x="92.39788818359375" y="183.42884826660156" z="0.0"/>
         <position x="92.39239501953125" y="147.30715942382812" z="0.0"/>
         <position x="105.45079803466797" y="132.8538818359375" z="0.0"/>
         <position x="214.47857666015625" y="133.2102813720703" z="0.0"/>
         <position x="312.8659362792969" y="133.53189086914062" z="0.0"/>
         <position x="334.67816162109375" y="159.21560668945312" z="0.0"/>
         <position x="334.68341064453125" y="173.56646728515625" z="0.0"/>
      </waypoints>
      <scenarios/>
   </route>
   <route id="9" town="Town01">
      <weathers>
         <weather route_percentage="0" cloudiness="0.0" precipitation="0.0" precipitation_deposits="0.0" wetness="0.0" wind_intensity="0.0" sun_azimuth_angle="90.0" sun_altitude_angle="90.0" fog_density="0.0"/>
         <weather route_percentage="100" cloudiness="0.0" precipitation="0.0" precipitation_deposits="0.0" wetness="0.0" wind_intensity="0.0" sun_azimuth_angle="90.0" sun_altitude_angle="90.0" fog_density="0.0"/>
      </weathers>
      <waypoints>
         <position x="338.6842956542969" y="176.00216674804688" z="0.0"/>
         <position x="338.6741638183594" y="148.27407836914062" z="0.0"/>
         <position x="338.6495666503906" y="80.78645324707031" z="0.0"/>
         <position x="320.7290344238281" y="55.4112548828125" z="0.0"/>
         <position x="212.8487548828125" y="55.2850456237793" z="0.0"/>
         <position x="173.32044982910156" y="55.238800048828125" z="0.0"/>
         <position x="157.9892120361328" y="40.340248107910156" z="0.0"/>
         <position x="157.95950317382812" y="15.695076942443848" z="0.0"/>
         <position x="173.07179260253906" y="1.702979564666748" z="0.0"/>
         <position x="280.5867614746094" y="1.7575045824050903" z="0.0"/>
         <position x="312.7760314941406" y="1.7738289833068848" z="0.0"/>
         <position x="349.441162109375" y="1.7924233675003052" z="0.0"/>
         <position x="380.9141540527344" y="1.8083845376968384" z="0.0"/>
         <position x="392.23345947265625" y="14.538103103637695" z="0.0"/>
         <position x="392.3465576171875" y="166.41212463378906" z="0.0"/>
         <position x="392.4117431640625" y="253.89410400390625" z="0.0"/>
         <position x="392.44500732421875" y="298.43646240234375" z="0.0"/>
         <position x="378.6864318847656" y="326.48663330078125" z="0.0"/>
         <position x="365.12506103515625" y="326.478271484375" z="0.0"/>
      </waypoints>
      <scenarios/>
   </route>

   <route id="10" town="Town02">
      <weathers>
         <weather route_percentage="0" cloudiness="0.0" precipitation="0.0" precipitation_deposits="0.0" wetness="0.0" wind_intensity="0.0" sun_azimuth_angle="90.0" sun_altitude_angle="90.0" fog_density="0.0"/>
         <weather route_percentage="100" cloudiness="0.0" precipitation="0.0" precipitation_deposits="0.0" wetness="0.0" wind_intensity="0.0" sun_azimuth_angle="90.0" sun_altitude_angle="90.0" fog_density="0.0"/>
      </weathers>
      <waypoints>
         <position x="-3.6973562240600586" y="179.0623321533203" z="0.0"/>
         <position x="-3.74371337890625" y="139.95481872558594" z="0.0"/>
         <position x="11.363693237304688" y="109.63178253173828" z="0.0"/>
         <position x="94.48065185546875" y="109.6552963256836" z="0.0"/>
         <position x="141.0159149169922" y="109.66847229003906" z="0.0"/>
         <position x="157.96469116210938" y="109.67328643798828" z="0.0"/>
         <position x="178.3649444580078" y="109.6790771484375" z="0.0"/>
         <position x="189.5306854248047" y="122.14183807373047" z="0.0"/>
         <position x="189.5395965576172" y="175.0299835205078" z="0.0"/>
         <position x="150.44764709472656" y="188.11343383789062" z="0.0"/>
         <position x="122.00720977783203" y="188.1365203857422" z="0.0"/>
         <position x="60.52153015136719" y="188.1864013671875" z="0.0"/>
         <position x="41.70449447631836" y="202.53211975097656" z="0.0"/>
         <position x="41.695037841796875" y="224.2197723388672" z="0.0"/>
         <position x="58.090850830078125" y="240.9201202392578" z="0.0"/>
         <position x="85.47953033447266" y="241.01443481445312" z="0.0"/>
         <position x="120.41314697265625" y="241.13473510742188" z="0.0"/>
         <position x="148.17320251464844" y="241.23033142089844" z="0.0"/>
         <position x="177.82032775878906" y="241.33242797851562" z="0.0"/>
         <position x="189.55259704589844" y="251.75140380859375" z="0.0"/>
         <position x="189.55908203125" y="289.68310546875" z="0.0"/>
         <position x="175.65786743164062" y="303.0173645019531" z="0.0"/>
         <position x="155.39031982421875" y="303.0081787109375" z="0.0"/>
         <position x="111.81758880615234" y="302.9884338378906" z="0.0"/>
         <position x="58.329769134521484" y="302.9642639160156" z="0.0"/>
         <position x="33.31934356689453" y="302.9530029296875" z="0.0"/>
         <position x="4.922668933868408" y="302.94024658203125" z="0.0"/>
         <position x="-3.566227436065674" y="289.6850891113281" z="0.0"/>
         <position x="-3.6064677238464355" y="255.73770141601562" z="0.0"/>
         <position x="-3.665682315826416" y="205.7830352783203" z="0.0"/>
      </waypoints>
      <scenarios/>
   </route>
   <route id="11" town="Town02">
      <weathers>
         <weather route_percentage="0" cloudiness="0.0" precipitation="0.0" precipitation_deposits="0.0" wetness="0.0" wind_intensity="0.0" sun_azimuth_angle="90.0" sun_altitude_angle="90.0" fog_density="0.0"/>
         <weather route_percentage="100" cloudiness="0.0" precipitation="0.0" precipitation_deposits="0.0" wetness="0.0" wind_intensity="0.0" sun_azimuth_angle="90.0" sun_altitude_angle="90.0" fog_density="0.0"/>
      </weathers>
      <waypoints>
         <position x="132.08555603027344" y="202.2764892578125" z="0.0"/>
         <position x="132.02027893066406" y="225.43690490722656" z="0.0"/>
         <position x="121.13550567626953" y="237.13720703125" z="0.0"/>
         <position x="89.0135269165039" y="237.02659606933594" z="0.0"/>
         <position x="57.835628509521484" y="236.91921997070312" z="0.0"/>
         <position x="45.694637298583984" y="225.14109802246094" z="0.0"/>
         <position x="45.70420455932617" y="203.19808959960938" z="0.0"/>
         <position x="57.2266731262207" y="192.1890869140625" z="0.0"/>
         <position x="81.93323516845703" y="192.16903686523438" z="0.0"/>
         <position x="118.5882339477539" y="192.13929748535156" z="0.0"/>
         <position x="146.61520385742188" y="192.11654663085938" z="0.0"/>
         <position x="178.01194763183594" y="192.091064453125" z="0.0"/>
         <position x="189.54441833496094" y="203.4066619873047" z="0.0"/>
         <position x="189.54843139648438" y="227.1832733154297" z="0.0"/>
         <position x="189.55213928222656" y="249.05113220214844" z="0.0"/>
         <position x="189.55966186523438" y="293.1253967285156" z="0.0"/>
         <position x="173.5743865966797" y="303.01641845703125" z="0.0"/>
         <position x="125.07994079589844" y="302.9944152832031" z="0.0"/>
         <position x="56.60258102416992" y="302.9635009765625" z="0.0"/>
         <position x="29.87148666381836" y="302.9514465332031" z="0.0"/>
         <position x="6.721999168395996" y="302.9410400390625" z="0.0"/>
         <position x="-3.567107677459717" y="288.9425048828125" z="0.0"/>
         <position x="-3.6103549003601074" y="252.45834350585938" z="0.0"/>
         <position x="-3.6689157485961914" y="203.05552673339844" z="0.0"/>
         <position x="-3.700047016143799" y="176.79234313964844" z="0.0"/>
         <position x="-3.7666711807250977" y="120.58747100830078" z="0.0"/>
         <position x="10.40816593170166" y="109.63151550292969" z="0.0"/>
         <position x="68.98878479003906" y="109.6480712890625" z="0.0"/>
         <position x="142.21524047851562" y="109.66881561279297" z="0.0"/>
         <position x="179.8607635498047" y="109.67950439453125" z="0.0"/>
         <position x="189.53060913085938" y="121.70121765136719" z="0.0"/>
         <position x="189.53500366210938" y="147.83090209960938" z="0.0"/>
         <position x="189.5394287109375" y="174.07957458496094" z="0.0"/>
      </waypoints>
      <scenarios/>
   </route>
   <route id="12" town="Town02">
      <weathers>
         <weather route_percentage="0" cloudiness="0.0" precipitation="0.0" precipitation_deposits="0.0" wetness="0.0" wind_intensity="0.0" sun_azimuth_angle="90.0" sun_altitude_angle="90.0" fog_density="0.0"/>
         <weather route_percentage="100" cloudiness="0.0" precipitation="0.0" precipitation_deposits="0.0" wetness="0.0" wind_intensity="0.0" sun_azimuth_angle="90.0" sun_altitude_angle="90.0" fog_density="0.0"/>
      </weathers>
      <waypoints>
         <position x="193.54002380371094" y="177.56105041503906" z="0.0"/>
         <position x="193.5331573486328" y="136.79953002929688" z="0.0"/>
         <position x="179.22007751464844" y="105.6793212890625" z="0.0"/>
         <position x="148.59690856933594" y="105.67062377929688" z="0.0"/>
         <position x="87.002685546875" y="105.6531753540039" z="0.0"/>
         <position x="49.58901596069336" y="105.642578125" z="0.0"/>
         <position x="5.824886798858643" y="105.63021850585938" z="0.0"/>
         <position x="-7.7668561935424805" y="120.43354797363281" z="0.0"/>
         <position x="-7.701048374176025" y="175.94989013671875" z="0.0"/>
         <position x="7.700477123260498" y="192.22926330566406" z="0.0"/>
         <position x="31.93472671508789" y="192.20960998535156" z="0.0"/>
         <position x="41.703643798828125" y="204.47900390625" z="0.0"/>
         <position x="41.69392013549805" y="226.78408813476562" z="0.0"/>
         <position x="41.68247985839844" y="253.0362548828125" z="0.0"/>
         <position x="41.66613006591797" y="290.5375671386719" z="0.0"/>
         <position x="57.2176628112793" y="306.9637756347656" z="0.0"/>
         <position x="117.23860931396484" y="306.9908752441406" z="0.0"/>
         <position x="170.76492309570312" y="307.01513671875" z="0.0"/>
         <position x="193.5585479736328" y="286.60009765625" z="0.0"/>
         <position x="193.5523223876953" y="250.09652709960938" z="0.0"/>
         <position x="193.5484619140625" y="227.3289031982422" z="0.0"/>
         <position x="193.54443359375" y="203.47640991210938" z="0.0"/>
         <position x="178.44085693359375" y="188.09071350097656" z="0.0"/>
         <position x="147.9085693359375" y="188.11549377441406" z="0.0"/>
         <position x="132.08602905273438" y="202.11294555664062" z="0.0"/>
         <position x="132.0171356201172" y="226.55282592773438" z="0.0"/>
         <position x="146.93177795410156" y="241.22605895996094" z="0.0"/>
         <position x="178.1513671875" y="241.3335723876953" z="0.0"/>
      </waypoints>
      <scenarios/>
   </route>
   <route id="13" town="Town02">
      <weathers>
         <weather route_percentage="0" cloudiness="0.0" precipitation="0.0" precipitation_deposits="0.0" wetness="0.0" wind_intensity="0.0" sun_azimuth_angle="90.0" sun_altitude_angle="90.0" fog_density="0.0"/>
         <weather route_percentage="100" cloudiness="0.0" precipitation="0.0" precipitation_deposits="0.0" wetness="0.0" wind_intensity="0.0" sun_azimuth_angle="90.0" sun_altitude_angle="90.0" fog_density="0.0"/>
      </weathers>
      <waypoints>
         <position x="-3.738391876220703" y="144.44424438476562" z="0.0"/>
         <position x="-3.767380714416504" y="119.98861694335938" z="0.0"/>
         <position x="7.558130741119385" y="109.63070678710938" z="0.0"/>
         <position x="45.090187072753906" y="109.64131164550781" z="0.0"/>
         <position x="113.20609283447266" y="109.66059875488281" z="0.0"/>
         <position x="141.51702880859375" y="109.66861724853516" z="0.0"/>
         <position x="179.80599975585938" y="109.67948913574219" z="0.0"/>
         <position x="189.5304412841797" y="120.67736053466797" z="0.0"/>
         <position x="189.53953552246094" y="174.72190856933594" z="0.0"/>
         <position x="178.18048095703125" y="188.09092712402344" z="0.0"/>
         <position x="149.033447265625" y="188.1145782470703" z="0.0"/>
         <position x="121.97608184814453" y="188.13653564453125" z="0.0"/>
         <position x="93.96239471435547" y="188.15927124023438" z="0.0"/>
         <position x="58.371482849121094" y="188.1881561279297" z="0.0"/>
         <position x="31.63255500793457" y="188.20985412597656" z="0.0"/>
         <position x="8.851332664489746" y="188.22833251953125" z="0.0"/>
         <position x="-7.667158603668213" y="204.54019165039062" z="0.0"/>
         <position x="-7.616515159606934" y="247.26382446289062" z="0.0"/>
         <position x="-7.558794021606445" y="295.9584655761719" z="0.0"/>
         <position x="8.517756462097168" y="306.9418640136719" z="0.0"/>
         <position x="30.02149772644043" y="306.9515380859375" z="0.0"/>
         <position x="57.969852447509766" y="306.964111328125" z="0.0"/>
         <position x="112.28224182128906" y="306.9886474609375" z="0.0"/>
         <position x="161.7004852294922" y="307.0110168457031" z="0.0"/>
         <position x="181.98533630371094" y="307.0096130371094" z="0.0"/>
         <position x="193.55911254882812" y="289.9349670410156" z="0.0"/>
         <position x="193.5528564453125" y="253.2315216064453" z="0.0"/>
         <position x="177.37710571289062" y="237.3308868408203" z="0.0"/>
         <position x="147.118408203125" y="237.2266845703125" z="0.0"/>
         <position x="120.25482940673828" y="237.13418579101562" z="0.0"/>
         <position x="88.9172592163086" y="237.02626037597656" z="0.0"/>
         <position x="58.52439498901367" y="236.9215850830078" z="0.0"/>
      </waypoints>
      <scenarios/>
   </route>
   <route id="14" town="Town02">
      <weathers>
         <weather route_percentage="0" cloudiness="0.0" precipitation="0.0" precipitation_deposits="0.0" wetness="0.0" wind_intensity="0.0" sun_azimuth_angle="90.0" sun_altitude_angle="90.0" fog_density="0.0"/>
         <weather route_percentage="100" cloudiness="0.0" precipitation="0.0" precipitation_deposits="0.0" wetness="0.0" wind_intensity="0.0" sun_azimuth_angle="90.0" sun_altitude_angle="90.0" fog_density="0.0"/>
      </weathers>
      <waypoints>
         <position x="25.936994552612305" y="105.63590240478516" z="0.0"/>
         <position x="4.040321350097656" y="105.667724609375" z="0.0"/>
         <position x="-7.769290447235107" y="118.38006591796875" z="0.0"/>
         <position x="-7.702364444732666" y="174.83985900878906" z="0.0"/>
         <position x="7.460062026977539" y="192.22946166992188" z="0.0"/>
         <position x="29.824506759643555" y="192.21131896972656" z="0.0"/>
         <position x="41.70338821411133" y="205.06849670410156" z="0.0"/>
         <position x="41.6942024230957" y="226.1383514404297" z="0.0"/>
         <position x="56.21331024169922" y="240.9136505126953" z="0.0"/>
         <position x="87.24083709716797" y="241.0205078125" z="0.0"/>
         <position x="119.44264221191406" y="241.1313934326172" z="0.0"/>
         <position x="136.01722717285156" y="226.52333068847656" z="0.0"/>
         <position x="136.08560180664062" y="202.26036071777344" z="0.0"/>
         <position x="146.19561767578125" y="192.11688232421875" z="0.0"/>
         <position x="178.8236541748047" y="192.0904083251953" z="0.0"/>
         <position x="189.5445556640625" y="204.235107421875" z="0.0"/>
         <position x="189.54820251464844" y="225.80416870117188" z="0.0"/>